SIMULATION
  SIMULATION_TYPE SUBSURFACE
  
  PROCESS_MODELS
    SUBSURFACE_FLOW flow
      MODE RICHARDS
    /
    SUBSURFACE_TRANSPORT transport
      MODE GIRT
    /
  /

  CHECKPOINT 
    FORMAT HDF5
    PERIODIC TIME 100 yr
  /

END

SUBSURFACE

REFERENCE_TEMPERATURE 35
NUMERICAL_METHODS flow
  NEWTON_SOLVER
    ITOL_UPDATE 1.0d0
    NO_PRINT_CONVERGENCE
  /
  TIMESTEPPER
    INITIAL_TIMESTEP_SIZE 1.d-5 yr
    MAXIMUM_TIMESTEP_SIZE 1.d0 yr
    MAXIMUM_NUMBER_OF_TIMESTEPS 100000000
  /
/

NUMERICAL_METHODS transport
  NEWTON_SOLVER
    SNES_TYPE NTRDC
    STOL 1e-50
    ATOL 1e-15
    RTOL 1e-9
    MAXIMUM_NUMBER_OF_ITERATIONS 25
    NO_PRINT_CONVERGENCE
  /
  TIMESTEPPER
    INITIAL_TIMESTEP_SIZE 1.d-5 yr
    MAXIMUM_TIMESTEP_SIZE 1.d-2 yr
    MAXIMUM_NUMBER_OF_TIMESTEPS 100000000
  /
/

CHEMISTRY

  ACTIVITY_COEFFICIENTS LAG TIMESTEP

  PRIMARY_SPECIES
    H+
    Ca++
    Na+
    K+
    Mg++
    CO3--
    Cl-
    UO2++
    O2(aq)
    H4(SiO4)
    Fe++
    Al+++
    SO4--
  /
  SECONDARY_SPECIES
    OH-
    CH4
    Al(OH)4-
    Al(OH)3
    NaAl(OH)4
    Al(OH)2+
    HCO3-
    CO2 
    Na(HCO3)
    Mg(HCO3)+
    CaCO3
    Na(CO3)-
    FeCO3
    Fe(OH)CO3
    Ca(SO4)
    Ca(HCO3)+
    MgCl+
    Fe+++
    FeCl+
    Fe(SO4)
    Fe(OH)+
    Fe(OH)2+
    Fe(OH)3
    Fe(CO3)2--
    H2(aq)
    Mg(SO4)
    Mg(CO3)
    U++++
    Ca2UO2(CO3)3
    CaUO2(CO3)3--
    UO2(CO3)3----
    MgUO2(CO3)3--
    Mg2UO2(CO3)3
    UO2(CO3)2--
    UO2(CO3)
    UO2(OH)+
    UO2(OH)2
    U(OH)4
    UO2+
    HS-
    H2S
    Fe(HS)+
    SO3--
    S2O3--
    Na(S2O3)-
    Mg(S2O3)
    Ca(S2O3)
    H(SO3)-
    H(SO4)-
  /
  
  PASSIVE_GAS_SPECIES
    O2(g)
  /
  
  MINERALS
    InertMineral
    UO2:2H2O(am)
    Calcite
  /

  ! Kinetics data from Palandri and Kharaka (2004) and Marty et al. (2015)
    
    MINERAL_KINETICS

    InertMineral
      RATE_CONSTANT   0.0 mol/m^2-sec
    /

    Calcite
      RATE_CONSTANT   1e-9 mol/m^2-sec
    /
    
    UO2:2H2O(am)
      SURFACE_AREA_FUNCTION VOLUME_FRACTION_RATIO
      SURFACE_AREA_VOL_FRAC_POWER 0.66667
      PREFACTOR
        RATE_CONSTANT -7.98
        ACTIVATION_ENERGY 32.0d3
      /
    / 

  /
  
  DATABASE ./PFLOTRAN_O2_ThermoChimie_v12a_T_modified.dat
  
  LOG_FORMULATION
  
  OUTPUT
    ALL
    PH
    PE
    KD
    TOTAL
    SECONDARY_SPECIES
    TOTAL_SORBED
    MOLARITY
  /
  
END

GRID
  TYPE UNSTRUCTURED ../../mesh/output_hr_modified/mesh.h5
END

FLUID_PROPERTY
  DIFFUSION_COEFFICIENT 1.d-9 
END

MATERIAL_PROPERTY source
  ID 3
  POROSITY 0.01
  TORTUOSITY 1.0
  LONGITUDINAL_DISPERSIVITY 0.1
  PERMEABILITY
    PERM_ISO 1.d-14 ! unit: m^2
  /
  CHARACTERISTIC_CURVES default
END

MATERIAL_PROPERTY bentonite
  ID 2
  POROSITY 0.01
  TORTUOSITY 1.0
  LONGITUDINAL_DISPERSIVITY 0.1
  PERMEABILITY
    PERM_ISO 1.d-14 ! unit: m^2
  /
  CHARACTERISTIC_CURVES default
END

MATERIAL_PROPERTY granite_fracture
  ID 1
  POROSITY 0.1
  TORTUOSITY 1.0
  LONGITUDINAL_DISPERSIVITY 0.1
  PERMEABILITY
    PERM_ISO 1.d-14
  /
  CHARACTERISTIC_CURVES default
END

CHARACTERISTIC_CURVES default
  DEFAULT
END

OUTPUT
  VELOCITY_AT_CENTER
  SNAPSHOT_FILE
    PERIODIC TIME 50 yr
    FORMAT HDF5
    VARIABLES
      POROSITY
      PERMEABILITY
      VOLUME
    /
  /
  OBSERVATION_FILE
    PERIODIC TIME 1 yr
    VARIABLES
      NO_FLOW_VARIABLES
      NO_ENERGY_VARIABLES
      POROSITY
      VOLUME
    /
  /
  MASS_BALANCE_FILE
    PERIODIC TIME 1 yr
  /
END

TIME
  FINAL_TIME 50 yr
END

REGION all
  COORDINATES
    -10.d0 -3.d0 -5.d0
    10.d0 3.d0 5.d0
  /
END

REGION west
  FILE ../../mesh/output_hr_modified/sideset1.ss
END

REGION east
  FILE ../../mesh/output_hr_modified/sideset2.ss
END

REGION source 
  FILE ../../mesh/output_hr_modified/material_3.txt
END

REGION bentonite
  FILE ../../mesh/output_hr_modified/material_2.txt
END

REGION granite_fracture
  FILE ../../mesh/output_hr_modified/material_1.txt
END

FLOW_CONDITION initial_pressure
  TYPE
    LIQUID_PRESSURE DIRICHLET
  /
  LIQUID_PRESSURE 501325.d0 ! unit: Pa
END

FLOW_CONDITION inlet_pressure
  TYPE
    LIQUID_PRESSURE DIRICHLET
  /
    LIQUID_PRESSURE 502639.2765835595 ! unit: Pa

END

TRANSPORT_CONDITION GRANITE_TC
  TYPE DIRICHLET_ZERO_GRADIENT
  CONSTRAINT_LIST
    0.d0 granite_conc
  /
END

TRANSPORT_CONDITION BENTONITE_TC
  TYPE DIRICHLET_ZERO_GRADIENT
  CONSTRAINT_LIST
    0.d0 bentonite_conc
  /
END

TRANSPORT_CONDITION SOURCE_TC
  TYPE DIRICHLET_ZERO_GRADIENT
  CONSTRAINT_LIST
    0.d0 source_conc
  /
END

TRANSPORT_CONDITION INLET_TC
  TYPE DIRICHLET
  TIME_UNITS yr
  CONSTRAINT_LIST
    0.d0 seawater_conc
  /
END

INITIAL_CONDITION GRANITE
  FLOW_CONDITION initial_pressure
  TRANSPORT_CONDITION GRANITE_TC 
  REGION granite_fracture
END

INITIAL_CONDITION BENTONITE
  FLOW_CONDITION initial_pressure
  TRANSPORT_CONDITION BENTONITE_TC
  REGION bentonite
END

INITIAL_CONDITION SOURCE
  FLOW_CONDITION initial_pressure
  TRANSPORT_CONDITION SOURCE_TC
  REGION source
END

BOUNDARY_CONDITION OUTLET
  FLOW_CONDITION initial_pressure
  TRANSPORT_CONDITION GRANITE_TC
  REGION east
END

BOUNDARY_CONDITION INLET
  FLOW_CONDITION inlet_pressure
  TRANSPORT_CONDITION INLET_TC
  REGION west
END

! Constraints are pre-calculated by PHREEQC to achieve semi-equilibrium state
CONSTRAINT granite_conc
  ACKNOWLEDGE_ZERO_SURFACE_AREA
  CONCENTRATIONS
    H+		6.835764	    pH
    CO3--	0.001026657	  T
    Ca++ 	0.01312668	  T
    Cl-		0.1392766	    Z
    Fe++	0.00003310075	T
    K+		0.000875	    T
    Mg++	0.00930007	  T
    Na+		0.0888	      T
    SO4--	0.00680009 	T
    H4(SiO4)	0.0002337517	T
    Al+++	0.00000001350717			T
    UO2++	1.000104E-16			T
    O2(aq)	-2.629056	PE
  /
  MINERALS
    InertMineral 0.9 0.0 m^2/m^3
    UO2:2H2O(am)		0.0	1e2 	m^2/m^3
    Calcite         0.0 1e2   m^2/m^3
  /
/
  
CONSTRAINT bentonite_conc
  ACKNOWLEDGE_ZERO_SURFACE_AREA
  CONCENTRATIONS
    H+		6.83427		pH
    CO3--	0.001881264 	T
    Ca++ 	0.0294397	T
    Cl-		0.1392766		Z
    Fe++	0.00003310096	T 
    K+		0.0009260782	T
    Mg++	0.01145159	T
    Na+		0.09379946		T
    SO4--	0.01793532	T
    H4(SiO4)	0.0002337517	T
    Al+++	0.00000001109302			T
    UO2++	9.931716E-17			M UO2:2H2O(am)
    O2(aq)	-2.574846		PE
  /
  MINERALS
    InertMineral		0.89	0.0 	m^2/m^3
    UO2:2H2O(am)		0.05 0.05 m^2/m^3
    Calcite         0.05 1e2   m^2/m^3
  /
/	

CONSTRAINT source_conc
  ACKNOWLEDGE_ZERO_SURFACE_AREA
  CONCENTRATIONS
    H+		6.83427		pH
    CO3--	0.001881264 	T
    Ca++ 	0.0294397	T
    Cl-		0.1392766		Z
    Fe++	0.00003310096	T 
    K+		0.0009260782	T
    Mg++	0.01145159	T
    Na+		0.09379946		T
    SO4--	0.01793532	T
    H4(SiO4)	0.0002337517	T
    Al+++	0.00000001109302			T
    UO2++	9.931716E-17			M UO2:2H2O(am)
    O2(aq)	-2.574846		PE
  /
  MINERALS
    InertMineral 0.89 0.0 m^2/m^3
    UO2:2H2O(am)		0.05 0.05 m^2/m^3
    Calcite         0.05 0.05 m^2/m^3
  /
/

CONSTRAINT seawater_conc
  CONCENTRATIONS
    H+		6.835764	    pH
    CO3--	0.002026657	  T
    Ca++ 	0.02312668	  T
    Cl-		0.1392766	    Z
    Fe++	0.00003310075	T
    K+		0.000875	    T
    Mg++	0.00930007	  T
    Na+		0.0888	      T
    SO4--	0.00680009 	T
    H4(SiO4)	0.0002337517	T
    Al+++	0.00000001350717			T
    UO2++	1.000104E-16			T
    O2(aq)	-2.629056	PE
  /
/
  
STRATA
  FILE ../../mesh/output_hr_modified/mesh.h5
END
